LAMMPS (3 Mar 2020)
# Define variables
# Length of sides of cubic box
variable L equal 5
# Temperature:
variable T equal 1
# Density:
variable rho equal 0.001
# Pressure:
variable P equal 0.01
# Set Pconst=1 for pressure constant, Pconst=0 for volume constant
variable Pconst equal 0

units lj
dimension 3
lattice fcc 0.001
Lattice spacing in x,y,z = 15.874 15.874 15.874
region simbox block 0 $L 0 $L 0 $L
region simbox block 0 5 0 $L 0 $L
region simbox block 0 5 0 5 0 $L
region simbox block 0 5 0 5 0 5
create_box 1 simbox
Created orthogonal box = (0 0 0) to (79.3701 79.3701 79.3701)
create_atoms 1 box
Created 500 atoms

mass 1 1.0
velocity all create $T 87287
velocity all create 1 87287
pair_style lj/cut 2.5
pair_coeff 1 1 1.0 1.0 2.5

fix nvt all nvt temp $T $T 1
fix nvt all nvt temp 1 $T 1
fix nvt all nvt temp 1 1 1
neigh_modify every 1 delay 0 check yes

#Thermalization run
run 1000
  update every 1 steps, delay 0 steps, check yes
Step Temp E_pair E_mol TotEng Press
0            1            0            0        1.497     0.000998
Loop time of 0.0377613 on 1 procs for 1000 steps with 500 atoms

unfix nvt
fix nve all nve

#Start heat addition and run to stabilize
variable eFlux equal 1
fix heat all heat 1 1 region simbox
run 1000
Step Temp E_pair E_mol TotEng Press
1000   0.99363708 -0.0018485692            0    1.4856261 0.0010052097
Loop time of 0.0527129 on 1 procs for 1000 steps with 500 atoms

#Define new thermodynamic output and trajectory dump and start production run
thermo_style custom step temp epair etotal press
thermo 100
dump 1 all custom 100 dump.lammpstrj id x y z vx vy vz
run 100000
Step Temp E_pair TotEng Press
2000    1.0017492 -0.0041239588    1.4954946 0.00099665024
Averages over the last 226 of 451 rows, steps 24500 to 47000:
Temp E_pair TotEng Press
1.22919 -0.00709077 1.83301 0.00122277
   47100    1.3
